AIEntryData 08BFEC8B-9204-EE77-79B6-F815E7E0A7BA
    $::GameAIEntryData
        $::Asset
            $::DataContainer
            Name *nullString*
    EquipmentType *nullGuid*
    Armament *nullGuid*
    Mobility *nullGuid*
    StrengthType Infantry
    ReuseTime 0.0
    Forbidden True
    HasExposedSoldier False
    InterludeOnly False
    InvalidForAI False
AIEntryData 3282B39A-A1A5-07B4-E3E3-3AAB1A82C20F
    $::GameAIEntryData
        $::Asset
            $::DataContainer
            Name *nullString*
    EquipmentType *nullGuid*
    Armament *nullGuid*
    Mobility *nullGuid*
    StrengthType Infantry
    ReuseTime 0.0
    Forbidden True
    HasExposedSoldier False
    InterludeOnly False
    InvalidForAI False
AIWeaponData BA31A593-BABD-9E3B-C097-3DB096E835E4
    $::GameAIWeaponData
        $::Asset
            $::DataContainer
            Name *nullString*
    Strengths::Strengths
        Infantry 0.0
        LightArmour 0.0
        HeavyArmour 0.0
        Helicopter 0.0
    Indirect False
    IsAiAllowed True
    UseFromCover False
    DisableWeaponSway False
    MinRange 0.0
    MaxRange 0.0
    OptimalRangePercentage 0.0
    ReloadBehavior RbInCover
    MinExtraReloadTime 0.0
    MaxExtraReloadTime 0.0
    AllowedAgainstImmortals True
    CanSuppress True
    CanAltAttack False
    IsStandStill False
    IsMelee False
    IsBlindFireAllowed True
    WaitTimeBeforeFire 0.0
    BurstLimitNear::BurstLimit
        Min 0
        Max 0
    BurstLimitFar::BurstLimit
        Min 0
        Max 0
    MinBurstCoolDownTime 1.0
    MaxBurstCoolDownTime 2.0
    LostTargetBurstCoolDownModifier 2.0
    AimTransitionFireDelay 0.35
    AimAngularVelocity 0.0
    AngleToTargetSnap 0.0
    AimWhileReloading True
    UseZoom False
    AimOrigin AoDefault
    GravityModifier 1.0
    AimHighIndirectPath False
    MinimumAccuracyBeforeFiring 7.0
    AdditionalMinimumAccuracyAtMinRange 0.0
    SweepFirstAttack False
    SweepType SstTargetLost
    SweepDistance 0.0
    SweepTime 0.5
    InnerInaccurateDistance 5.0
    OuterInaccurateDistance 10.0
    InaccuracyFollowsTarget True
    UseInaccuracyAtCloseRange False
    StartAccuracyPercentage 0.5
    FinalAccuracyPercentage 0.5
AeroDynamicPhysicsData B2C5563E-9D5A-4178-86D0-7BB7ED577F52
    $::DataContainer
    BodyDrag::Vec3
        x 0.0
        y 0.0
        z 0.0035
    BodyDragOffsetYZ::Vec3
        x 0.0
        y 0.0
        z 0.0
    BodyDragOffsetXZ::Vec3
        x 0.0
        y 0.0
        z 0.0
    BodyDragOffsetXY::Vec3
        x 0.0
        y 0.0
        z 0.0
AirRadarData 368FEAB2-C7AD-45BC-8416-FDF787C19BF9
    $::UIPartData
        $::DataContainer
    RadarRange 1500.0
    RadarSensitivity -1.0
    HeatSensitivity 1.0
    TrackLaserPaintedObjects True
    TrackOnlyUsedVehicles True
    FriendlyIcon UIHudIcon_SnapOvalArrow
    EnemyIcon UIHudIcon_SpottedPosition
    MissileIcon UIHudIcon_NonSelectableSpawnPoint
    LaserPaintedIcon UIHudIcon_SelectedSpawnPoint
    CenterIcon UIHudIcon_Jet
    NorthIcon UIHudIcon_North
    SouthIcon UIHudIcon_North
    EastIcon UIHudIcon_North
    WestIcon UIHudIcon_North
    SubScreen::SubScreenData
        ProjectionAngleX 0.0
        ProjectionAngleY 0.0
        ProjectionAngleZ 0.0
        ScreenPosition::Vec3
            x 0.924
            y 0.0
            z 0.15
        ScreenSize 0.14
        IconSize 20.0
        ScaleIconSizeByDepthStrength 1.0
        UseRenderTarget False
        RenderTargetIndex 0
        RenderTargetApectRatio 1.55
    UseCameraComponentTransform False
AirRadarData 2A54CB99-FE14-4E3E-8841-7E4ED155B523
    $::UIPartData
        $::DataContainer
    RadarRange 1500.0
    RadarSensitivity -1.0
    HeatSensitivity 1.0
    TrackLaserPaintedObjects True
    TrackOnlyUsedVehicles True
    FriendlyIcon UIHudIcon_SnapOvalArrow
    EnemyIcon UIHudIcon_SpottedPosition
    MissileIcon UIHudIcon_NonSelectableSpawnPoint
    LaserPaintedIcon UIHudIcon_SelectedSpawnPoint
    CenterIcon UIHudIcon_Jet
    NorthIcon UIHudIcon_North
    SouthIcon UIHudIcon_North
    EastIcon UIHudIcon_North
    WestIcon UIHudIcon_North
    SubScreen::SubScreenData
        ProjectionAngleX 0.0
        ProjectionAngleY 0.0
        ProjectionAngleZ 0.0
        ScreenPosition::Vec3
            x 0.924
            y 0.0
            z 0.15
        ScreenSize 0.14
        IconSize 20.0
        ScaleIconSizeByDepthStrength 1.0
        UseRenderTarget False
        RenderTargetIndex 0
        RenderTargetApectRatio 1.55
    UseCameraComponentTransform False
AlternateCameraViewData 8EA80135-ECD9-4785-946F-C9DF322C8314
    $::DataContainer
    FieldOfView 80.0
    AllowFieldOfViewScaling False
    FovTransitionTime 0.1
    WorldSpaceLockEfficiency 0.0
    Mesh vehicles/common/jethudtest_mesh/C91AC554-F74F-11DD-8ED4-886091482761
    MaskMeshBlueprint *nullGuid*
    LockMeshToRenderView False
    MeshOffset::Vec3
        x 0.0
        y 0.01
        z 0.35
    Hud::HudData
        CrosshairScaleMin 0.0
        CrosshairScaleMax 5.0
        CrosshairOpacityMin 1.0
        CrosshairOpacityMax 0.1
        CrosshairOpacityModifier 1.0
        CrosshairTypeId f16_pilot
        WeaponClass *nullString*
        ShowMinimap False
        HideAmmo False
        LowAmmoWarning 0.3
        ReloadPrompt 0.3
        InfiniteAmmo False
        HideCrosshairWhenAimOnFriend True
        UseRenderTarget False
        RenderTargetIndex 0
        HudPropertyList *nullGuid*
        UseRangeMeter False
        UseAimWarning True
        UsePredictedSight True
        UseWeaponOrientations False
        UseVelocityVectorMarker True
        UseLockingController True
        UseThrust True
        UseGForce True
        UseSkidSlip False
        UseClimbRate False
        SeaLevelAltFreq 0.0
        CameraShakeModifier 1.0
    FadeToBlack False
    FadeInDuration 0.1
    FadeOutDuration 0.1
    BlackDuration 0.1
    InputSuppression::InputSuppressionData
        SuppressVehicleInput::array
            member::ActionSuppressor
                ActionToSuppress EIAPitch
                SuppressingValue 0.0
            member::ActionSuppressor
                ActionToSuppress EIARoll
                SuppressingValue 0.0
    ToggleViewChange False
    UseProfileOptionForToggleViewChange False
    FLIREnabled False
    ScreenExposureAreaScale 1.0
BangerSpawnImpulseParams 862D4538-AD37-4D5E-A236-D2F62EF63A27
    $::DataContainer
    MinHorizontalAngle -90.0
    MaxHorizontalAngle 90.0
    MinVerticalAngle 45.0
    MaxVerticalAngle 85.0
    MinStrength 15000.0
    MaxStrength 15000.0
    WaterStrengthModifier 0.007
    LinearDamping 0.0
    AngularDamping 0.05
BangerSpawnImpulseParams C68D4359-7947-434C-AD73-92351B604D44
    $::DataContainer
    MinHorizontalAngle -90.0
    MaxHorizontalAngle -45.0
    MinVerticalAngle 45.0
    MaxVerticalAngle 45.0
    MinStrength 15000.0
    MaxStrength 15000.0
    WaterStrengthModifier 0.007
    LinearDamping 0.0
    AngularDamping 0.05
BangerSpawnImpulseParams 7C4313DF-2C4F-4A0A-9361-26DC9B2129FD
    $::DataContainer
    MinHorizontalAngle 45.0
    MaxHorizontalAngle 90.0
    MinVerticalAngle 45.0
    MaxVerticalAngle 90.0
    MinStrength 15000.0
    MaxStrength 15000.0
    WaterStrengthModifier 0.007
    LinearDamping 0.0
    AngularDamping 0.05
BangerSpawnImpulseParams 38D2BE06-344B-4186-9103-05969C09542D
    $::DataContainer
    MinHorizontalAngle -90.0
    MaxHorizontalAngle 90.0
    MinVerticalAngle 45.0
    MaxVerticalAngle 85.0
    MinStrength 15000.0
    MaxStrength 15000.0
    WaterStrengthModifier 0.007
    LinearDamping 0.0
    AngularDamping 0.05
CameraComponentData 674E02BF-381D-4B5F-B7F1-C2E83A2EDB40
    $::ComponentData
        $::GameObjectData
            $::GameDataContainer
                $::DataContainer
            IsEventConnectionTarget 3
            IsPropertyConnectionTarget 3
            IndexInBlueprint -1
        Transform::LinearTransform
            right::Vec3
                x 1.0
                y 0.0
                z 0.0
            up::Vec3
                x 0.0
                y 0.9941436
                z 0.10806707
            forward::Vec3
                x 0.0
                y -0.10806707
                z 0.9941436
            trans::Vec3
                x 0.0
                y 0.9827857
                z 0.96340954
        Components *nullArray*
        Excluded False
    Camera E65BCD4C-FD86-47AA-88C2-84375CC6B9B4
    FieldOfView 45.0
    ForceFieldOfView -1.0
    EnableCameraMesh True
    AlternateView 8EA80135-ECD9-4785-946F-C9DF322C8314
    RegularView::RegularCameraViewData
        FLIREnabled False
        InputSuppression::InputSuppressionData
            SuppressVehicleInput *nullArray*
        FieldOfView 80.0
        AllowFieldOfViewScaling False
        Mesh vehicles/common/jethudtest_mesh/C91AC554-F74F-11DD-8ED4-886091482761
        MaskMeshBlueprint *nullGuid*
        LockMeshToRenderView False
        MeshOffset::Vec3
            x 0.0
            y 0.01
            z 0.35
        ScreenExposureAreaScale 1.0
    AlternateViewEnabled True
    FreezeHeight 0.0
    IsFirstPerson True
    SoldierAnimatedCamera::SoldierAnimatedCameraData
        EnableFeature False
        CameraTransitionTime 0.5
    ReceiveImpulsesAsThirdPerson False
    UseCameraTransition False
    CameraTransitionPos::Vec3
        x 0.0
        y 0.0
        z 0.0
    CameraTransitionTime 0.1
    MeshParentComponentNumber 0
    StanceData::StanceCameraData
        ValidStances::array
            member 0
            member 1
        DefaultCameraForStances::array
            member 0
            member 1
    CameraSoundData *nullGuid*
    IgnoreOwnerOrientation False
CameraComponentData 9CD1B970-9DD1-4741-8EAD-991F420085EA
    $::ComponentData
        $::GameObjectData
            $::GameDataContainer
                $::DataContainer
            IsEventConnectionTarget 3
            IsPropertyConnectionTarget 3
            IndexInBlueprint -1
        Transform::LinearTransform
            right::Vec3
                x 1.0
                y 0.0
                z 0.0
            up::Vec3
                x 0.0
                y 0.9873643
                z 0.15846659
            forward::Vec3
                x 0.0
                y -0.15846659
                z 0.9873643
            trans::Vec3
                x 0.0
                y 1.4430333
                z -0.8258667
        Components *nullArray*
        Excluded False
    Camera AE1E18DB-93F5-4CA6-B080-9117BF30FB71
    FieldOfView 55.0
    ForceFieldOfView -1.0
    EnableCameraMesh True
    AlternateView *nullGuid*
    RegularView::RegularCameraViewData
        FLIREnabled False
        InputSuppression::InputSuppressionData
            SuppressVehicleInput *nullArray*
        FieldOfView 55.0
        AllowFieldOfViewScaling False
        Mesh levels/sp_jet/huds/helmethud_mesh/65204949-BB9A-3A18-97C7-EF9463A6AA93
        MaskMeshBlueprint *nullGuid*
        LockMeshToRenderView False
        MeshOffset::Vec3
            x 0.0
            y 0.0
            z 0.06
        ScreenExposureAreaScale 1.0
    AlternateViewEnabled True
    FreezeHeight 0.0
    IsFirstPerson True
    SoldierAnimatedCamera::SoldierAnimatedCameraData
        EnableFeature True
        CameraTransitionTime 0.5
    ReceiveImpulsesAsThirdPerson False
    UseCameraTransition False
    CameraTransitionPos::Vec3
        x 0.0
        y 0.0
        z 0.0
    CameraTransitionTime 0.1
    MeshParentComponentNumber 0
    StanceData::StanceCameraData
        ValidStances::array
            member 0
            member 1
        DefaultCameraForStances::array
            member 0
            member 1
    CameraSoundData *nullGuid*
    IgnoreOwnerOrientation False
Curve2D E81675C0-0CF8-4F06-9F56-2E9C4098FAC6
    $::DataContainer
    Curve::array
        member::Vec2
            x -28.0
            y -10.0
        member::Vec2
            x -24.0
            y -6.0
        member::Vec2
            x -10.0
            y -2.0
        member::Vec2
            x -0.75
            y 0.0
        member::Vec2
            x 0.75
            y 0.0
        member::Vec2
            x 10.0
            y 2.0
        member::Vec2
            x 24.0
            y 6.0
        member::Vec2
            x 28.0
            y 10.0
Curve2D 9FB3D15E-05B1-4FEB-AAB5-A40269916EBC
    $::DataContainer
    Curve::array
        member::Vec2
            x -12.5
            y 2.25
        member::Vec2
            x -7.5
            y 1.25
        member::Vec2
            x -5.0
            y 0.1
        member::Vec2
            x -2.0
            y 0.05
        member::Vec2
            x 0.0
            y 0.03
        member::Vec2
            x 2.0
            y 0.05
        member::Vec2
            x 5.0
            y 0.1
        member::Vec2
            x 7.5
            y 1.25
        member::Vec2
            x 12.5
            y 2.25
Curve2D 6C62EFD2-7516-4798-A9A1-C5FA7E5DB0D9
    $::DataContainer
    Curve::array
        member::Vec2
            x -20.0
            y -4.0
        member::Vec2
            x -18.0
            y -4.0
        member::Vec2
            x -10.0
            y -2.0
        member::Vec2
            x 5.5
            y 3.0
        member::Vec2
            x 24.0
            y 6.0
        member::Vec2
            x 48.0
            y 5.0
        member::Vec2
            x 72.0
            y 0.0
        member::Vec2
            x 75.0
            y 0.0
Curve2D E9A65A87-25E3-40E4-8249-B6EB2A7CDD72
    $::DataContainer
    Curve::array
        member::Vec2
            x -40.0
            y 100.0
        member::Vec2
            x -30.0
            y 10.0
        member::Vec2
            x -12.5
            y 2.25
        member::Vec2
            x -7.5
            y 1.25
        member::Vec2
            x -5.0
            y 0.1
        member::Vec2
            x -2.0
            y 0.05
        member::Vec2
            x 0.0
            y 0.03
        member::Vec2
            x 2.0
            y 0.05
        member::Vec2
            x 5.0
            y 0.1
        member::Vec2
            x 7.5
            y 1.25
        member::Vec2
            x 12.5
            y 2.25
        member::Vec2
            x 30.0
            y 10.0
        member::Vec2
            x 40.0
            y 100.0
Curve2D 29AC9129-6816-4B97-866B-DD47FD8559C0
    $::DataContainer
    Curve::array
        member::Vec2
            x -28.0
            y -5.0
        member::Vec2
            x -24.0
            y -3.0
        member::Vec2
            x -1.3
            y -1.0
        member::Vec2
            x -0.75
            y 0.0
        member::Vec2
            x 0.75
            y 0.0
        member::Vec2
            x 1.3
            y 1.0
        member::Vec2
            x 24.0
            y 3.0
        member::Vec2
            x 28.0
            y 5.0
Curve2D 1C75C99E-5178-4BF5-9027-6D3E7699AD5D
    $::DataContainer
    Curve::array
        member::Vec2
            x -90.0
            y 50.0
        member::Vec2
            x -40.0
            y 10.0
        member::Vec2
            x -30.0
            y 0.0
        member::Vec2
            x 30.0
            y 0.0
        member::Vec2
            x 40.0
            y 10.0
        member::Vec2
            x 90.0
            y 50.0
Curve2D 7230A3BA-89F7-42C0-AA73-65A836632892
    $::DataContainer
    Curve::array
        member::Vec2
            x -60.0
            y 0.0
        member::Vec2
            x -48.0
            y -6.0
        member::Vec2
            x -24.0
            y -9.0
        member::Vec2
            x -5.5
            y -1.5
        member::Vec2
            x 10.0
            y 1.5
        member::Vec2
            x 18.0
            y 9.0
        member::Vec2
            x 48.0
            y 6.0
        member::Vec2
            x 72.0
            y 0.0
        member::Vec2
            x 75.0
            y 0.0
Curve2D ED6C621D-74D8-4539-B96C-B29AA86FFEFB
    $::DataContainer
    Curve::array
        member::Vec2
            x -45.0
            y 1.2
        member::Vec2
            x -12.0
            y 1.2
        member::Vec2
            x 0.0
            y 0.75
        member::Vec2
            x 12.0
            y 2.0
        member::Vec2
            x 45.0
            y 2.0
Curve2D 8455295C-AF5A-49AE-B15A-7FDB40B7447D
    $::DataContainer
    Curve::array
        member::Vec2
            x 0.0
            y 1.0
        member::Vec2
            x 175.0
            y 1.0
        member::Vec2
            x 275.0
            y 1.1
        member::Vec2
            x 300.0
            y 0.85
        member::Vec2
            x 325.0
            y 0.65
        member::Vec2
            x 350.0
            y 0.35
        member::Vec2
            x 400.0
            y 0.15
        member::Vec2
            x 800.0
            y 0.15
DelayEntityData BCFA85FB-1519-44A2-9199-8A15987F7305
    $::EntityData
        $::GameObjectData
            $::GameDataContainer
                $::DataContainer
            IsEventConnectionTarget 0
            IsPropertyConnectionTarget 3
            IndexInBlueprint 26
    Delay 3.0
    Realm Realm_Client
    AutoStart False
    RunOnce False
    RemoveDuplicateEvents True
DelayEntityData 34EB5348-E72F-464A-A61C-DB334D4FC768
    $::EntityData
        $::GameObjectData
            $::GameDataContainer
                $::DataContainer
            IsEventConnectionTarget 0
            IsPropertyConnectionTarget 3
            IndexInBlueprint 27
    Delay 1.0
    Realm Realm_Client
    AutoStart False
    RunOnce False
    RemoveDuplicateEvents True
EffectComponentData 20E9E2BF-08B4-4A23-84E3-03E9B4356216
    $::ComponentData
        $::GameObjectData
            $::GameDataContainer
                $::DataContainer
            IsEventConnectionTarget 3
            IsPropertyConnectionTarget 3
            IndexInBlueprint -1
        Transform::LinearTransform
            right::Vec3
                x -1.0
                y 0.0
                z 8.742278e-08
            up::Vec3
                x -1.3799944e-31
                y 0.99999994
                z -1.5785296e-24
            forward::Vec3
                x -8.742277e-08
                y -1.5785296e-24
                z -0.99999994
            trans::Vec3
                x -6.4852295
                y 0.27107412
                z -3.2825263
        Components *nullArray*
        Excluded False
    Effect fx/vehicles/misc/fx_air_contrail_01/3EEB2255-CF1F-E9FC-3046-71E757E36006
    AutoStart False
    SnapToWaterSurface False
    EmitterParameter1 0.0
    EmitterParameter2 0.0
    EmitterParameter3 0.0
EffectComponentData 6FF142C8-F5DE-4754-9B8E-7E6FC275D1F6
    $::ComponentData
        $::GameObjectData
            $::GameDataContainer
                $::DataContainer
            IsEventConnectionTarget 3
            IsPropertyConnectionTarget 3
            IndexInBlueprint -1
        Transform::LinearTransform
            right::Vec3
                x 1.0
                y -8.742278e-08
                z 8.742278e-08
            up::Vec3
                x -8.742278e-08
                y -1.0
                z -1.5785296e-24
            forward::Vec3
                x 8.742278e-08
                y -7.642742e-15
                z -1.0
            trans::Vec3
                x 6.4852295
                y 0.27107412
                z -3.2825263
        Components *nullArray*
        Excluded False
    Effect fx/vehicles/misc/fx_air_contrail_01/3EEB2255-CF1F-E9FC-3046-71E757E36006
    AutoStart False
    SnapToWaterSurface False
    EmitterParameter1 0.0
    EmitterParameter2 0.0
    EmitterParameter3 0.0
EffectComponentData 114CEBC3-A2A6-4EFE-913D-F7A5A1AA2279
    $::ComponentData
        $::GameObjectData
            $::GameDataContainer
                $::DataContainer
            IsEventConnectionTarget 0
            IsPropertyConnectionTarget 3
            IndexInBlueprint -1
        Transform::LinearTransform
            right::Vec3
                x 1.0
                y 4.371139e-08
                z -4.371139e-08
            up::Vec3
                x -4.371139e-08
                y 1.0
                z 3.946324e-25
            forward::Vec3
                x 4.371139e-08
                y 1.9106855e-15
                z 1.0
            trans::Vec3
                x 0.46673048
                y 0.12444507
                z -7.809929
        Components *nullArray*
        Excluded False
    Effect fx/vehicles/exhaust/fx_airplane_afterburner_01/9EA24ACE-7522-43DA-924E-6FF84731A518
    AutoStart False
    SnapToWaterSurface False
    EmitterParameter1 0.0
    EmitterParameter2 0.0
    EmitterParameter3 0.0
EffectComponentData 85497827-4436-4F90-8482-089CCEE18493
    $::ComponentData
        $::GameObjectData
            $::GameDataContainer
                $::DataContainer
            IsEventConnectionTarget 0
            IsPropertyConnectionTarget 3
            IndexInBlueprint -1
        Transform::LinearTransform
            right::Vec3
                x 1.0
                y 0.0
                z 0.0
            up::Vec3
                x 0.0
                y 1.0
                z 0.0
            forward::Vec3
                x 0.0
                y 0.0
                z 1.0
            trans::Vec3
                x -0.46673048
                y 0.12444507
                z -7.809929
        Components *nullArray*
        Excluded False
    Effect fx/vehicles/exhaust/fx_airplane_afterburner_01/9EA24ACE-7522-43DA-924E-6FF84731A518
    AutoStart False
    SnapToWaterSurface False
    EmitterParameter1 0.0
    EmitterParameter2 0.0
    EmitterParameter3 0.0
EffectComponentData 0CF07D04-4729-47E3-B5F8-EB0E1B087D08
    $::ComponentData
        $::GameObjectData
            $::GameDataContainer
                $::DataContainer
            IsEventConnectionTarget 0
            IsPropertyConnectionTarget 3
            IndexInBlueprint -1
        Transform::LinearTransform
            right::Vec3
                x 1.0
                y 0.0
                z 0.0
            up::Vec3
                x 0.0
                y 1.0
                z 0.0
            forward::Vec3
                x 0.0
                y 0.0
                z 1.0
            trans::Vec3
                x -0.46673048
                y 0.12444507
                z -7.6143813
        Components *nullArray*
        Excluded False
    Effect fx/vehicles/exhaust/fx_airplane_jetengine_01/E4A9CA73-4D4A-43CD-BCFE-7DFEBF70DC45
    AutoStart False
    SnapToWaterSurface False
    EmitterParameter1 0.0
    EmitterParameter2 0.0
    EmitterParameter3 0.0
EffectComponentData 89F37713-210D-4D3B-A48C-40DD89A126C5
    $::ComponentData
        $::GameObjectData
            $::GameDataContainer
                $::DataContainer
            IsEventConnectionTarget 0
            IsPropertyConnectionTarget 3
            IndexInBlueprint -1
        Transform::LinearTransform
            right::Vec3
                x 1.0
                y 0.0
                z 0.0
            up::Vec3
                x 0.0
                y 1.0
                z 0.0
            forward::Vec3
                x 0.0
                y 0.0
                z 1.0
            trans::Vec3
                x 0.46673048
                y 0.12444507
                z -7.6143813
        Components *nullArray*
        Excluded False
    Effect fx/vehicles/exhaust/fx_airplane_jetengine_01/E4A9CA73-4D4A-43CD-BCFE-7DFEBF70DC45
    AutoStart False
    SnapToWaterSurface False
    EmitterParameter1 0.0
    EmitterParameter2 0.0
    EmitterParameter3 0.0
EffectComponentData B6A25884-41C6-4DEA-B840-B24DEF8E3E5D
    $::ComponentData
        $::GameObjectData
            $::GameDataContainer
                $::DataContainer
            IsEventConnectionTarget 0
            IsPropertyConnectionTarget 3
            IndexInBlueprint -1
        Transform::LinearTransform
            right::Vec3
                x 1.0
                y 0.0
                z 0.0
            up::Vec3
                x 0.0
                y 1.0
                z 0.0
            forward::Vec3
                x 0.0
                y 0.0
                z 1.0
            trans::Vec3
                x -0.050626636
                y -0.79110146
                z 1.6257087
        Components *nullArray*
        Excluded False
    Effect fx/ambient/levelspecific/sp_f18/fx_amb_sp_f18_carrier_steamlauncher_start/44AF7F4F-7F09-4A8A-A835-7BA3DDE32BFA
    AutoStart False
    SnapToWaterSurface False
    EmitterParameter1 0.0
    EmitterParameter2 0.0
    EmitterParameter3 0.0
EffectComponentData B8AFFAA8-99E4-4B92-AE22-868A6AE6BE90
    $::ComponentData
        $::GameObjectData
            $::GameDataContainer
                $::DataContainer
            IsEventConnectionTarget 0
            IsPropertyConnectionTarget 3
            IndexInBlueprint -1
        Transform::LinearTransform
            right::Vec3
                x 1.0
                y 0.0
                z 0.0
            up::Vec3
                x 0.0
                y 1.0
                z 0.0
            forward::Vec3
                x 0.0
                y 0.0
                z 1.0
            trans::Vec3
                x -1.6440847
                y 0.41308755
                z -2.972661
        Components *nullArray*
        Excluded False
    Effect fx/vehicles/damagestates/healthhigh/airplane/fx_healthhigh_airplane/568A364E-7C77-4FC0-BE81-A13B3B755698
    AutoStart False
    SnapToWaterSurface False
    EmitterParameter1 0.0
    EmitterParameter2 0.0
    EmitterParameter3 0.0
EffectComponentData 9B2B41B2-9757-4F8B-A9BC-5E697A2156EA
    $::ComponentData
        $::GameObjectData
            $::GameDataContainer
                $::DataContainer
            IsEventConnectionTarget 0
            IsPropertyConnectionTarget 2
            IndexInBlueprint -1
        Transform::LinearTransform
            right::Vec3
                x 1.0
                y 0.0
                z 0.0
            up::Vec3
                x 0.0
                y 1.0
                z 0.0
            forward::Vec3
                x 0.0
                y 0.0
                z 1.0
            trans::Vec3
                x 0.0
                y 0.6
                z -5.0
        Components *nullArray*
        Excluded False
    Effect fx/vehicles/damagestates/healthcritical/airplane/fx_healthcritical_airplane/A929C058-20F8-43A2-8C52-935D4AA26A9A
    AutoStart False
    SnapToWaterSurface False
    EmitterParameter1 0.0
    EmitterParameter2 0.0
    EmitterParameter3 0.0
EffectComponentData 3A8D4394-280F-4182-8CBF-8C23B584D496
    $::ComponentData
        $::GameObjectData
            $::GameDataContainer
                $::DataContainer
            IsEventConnectionTarget 0
            IsPropertyConnectionTarget 3
            IndexInBlueprint -1
        Transform::LinearTransform
            right::Vec3
                x -1.0
                y 0.0
                z 8.742278e-08
            up::Vec3
                x -1.3799944e-31
                y 0.99999994
                z -1.5785296e-24
            forward::Vec3
                x -8.742277e-08
                y -1.5785296e-24
                z -0.99999994
            trans::Vec3
                x -6.4852295
                y 0.27107412
                z -3.2825263
        Components *nullArray*
        Excluded False
    Effect fx/vehicles/misc/fx_air_contrail_01/3EEB2255-CF1F-E9FC-3046-71E757E36006
    AutoStart False
    SnapToWaterSurface False
    EmitterParameter1 0.0
    EmitterParameter2 0.0
    EmitterParameter3 0.0
EffectComponentData BFF62CAB-E42E-4EE9-9213-E7CBD7955BBB
    $::ComponentData
        $::GameObjectData
            $::GameDataContainer
                $::DataContainer
            IsEventConnectionTarget 0
            IsPropertyConnectionTarget 3
            IndexInBlueprint -1
        Transform::LinearTransform
            right::Vec3
                x 1.0
                y -8.742278e-08
                z 8.742278e-08
            up::Vec3
                x -8.742278e-08
                y -1.0
                z -1.5785296e-24
            forward::Vec3
                x 8.742278e-08
                y -7.642742e-15
                z -1.0
            trans::Vec3
                x 6.4852295
                y 0.27107412
                z -3.2825263
        Components *nullArray*
        Excluded False
    Effect fx/vehicles/misc/fx_air_contrail_01/3EEB2255-CF1F-E9FC-3046-71E757E36006
    AutoStart False
    SnapToWaterSurface False
    EmitterParameter1 0.0
    EmitterParameter2 0.0
    EmitterParameter3 0.0
EffectComponentData C4DAF968-085D-4659-904A-C292AB0C93BD
    $::ComponentData
        $::GameObjectData
            $::GameDataContainer
                $::DataContainer
            IsEventConnectionTarget 0
            IsPropertyConnectionTarget 3
            IndexInBlueprint -1
        Transform::LinearTransform
            right::Vec3
                x -0.5