AIEntryData F2B715C3-917D-A7F0-E5AD-45DD15248371
    $::GameAIEntryData
        $::Asset
            $::DataContainer
            Name *nullString*
    EquipmentType *nullGuid*
    Armament *nullGuid*
    Mobility *nullGuid*
    StrengthType Infantry
    ReuseTime 0.0
    Forbidden True
    HasExposedSoldier False
    InterludeOnly False
    InvalidForAI False
AeroDynamicPhysicsData D73D2195-F7EA-4B30-B139-0AE442AFD73F
    $::DataContainer
    BodyDrag::Vec3
        x 0.035
        y 0.085
        z 0.02
    BodyDragOffsetYZ::Vec3
        x 0.0
        y 0.0
        z 0.0
    BodyDragOffsetXZ::Vec3
        x 0.0
        y 0.0
        z 0.0
    BodyDragOffsetXY::Vec3
        x 0.0
        y 0.0
        z 0.0
AlternateCameraViewData 09052262-E1A6-454E-AE14-43595FEEDE56
    $::DataContainer
    FieldOfView 50.0
    AllowFieldOfViewScaling False
    FovTransitionTime 0.1
    WorldSpaceLockEfficiency 0.0
    Mesh *nullGuid*
    MaskMeshBlueprint *nullGuid*
    LockMeshToRenderView False
    MeshOffset::Vec3
        x 0.0
        y 0.01
        z 0.52
    Hud::HudData
        CrosshairScaleMin 0.0
        CrosshairScaleMax 5.0
        CrosshairOpacityMin 1.0
        CrosshairOpacityMax 0.1
        CrosshairOpacityModifier 1.0
        CrosshairTypeId wz11
        WeaponClass *nullString*
        ShowMinimap True
        HideAmmo False
        LowAmmoWarning 0.3
        ReloadPrompt 0.3
        InfiniteAmmo False
        HideCrosshairWhenAimOnFriend True
        UseRenderTarget False
        RenderTargetIndex 0
        HudPropertyList *nullGuid*
        UseRangeMeter False
        UseAimWarning True
        UsePredictedSight True
        UseWeaponOrientations False
        UseVelocityVectorMarker False
        UseLockingController True
        UseThrust True
        UseGForce True
        UseSkidSlip False
        UseClimbRate True
        SeaLevelAltFreq 15.0
        CameraShakeModifier 1.0
    FadeToBlack False
    FadeInDuration 0.0
    FadeOutDuration 0.0
    BlackDuration 0.0
    InputSuppression::InputSuppressionData
        SuppressVehicleInput::array
            member::ActionSuppressor
                ActionToSuppress EIAPitch
                SuppressingValue 0.0
            member::ActionSuppressor
                ActionToSuppress EIARoll
                SuppressingValue 0.0
    ToggleViewChange False
    UseProfileOptionForToggleViewChange False
    FLIREnabled False
    ScreenExposureAreaScale 1.0
BoolEntityData 9333F594-FA9E-4748-A072-13992CD49FF5
    $::EntityData
        $::GameObjectData
            $::GameDataContainer
                $::DataContainer
            IsEventConnectionTarget 3
            IsPropertyConnectionTarget 3
            IndexInBlueprint 2
    Realm Realm_Server
    DefaultValue False
CameraComponentData 1B44FDFD-0CA9-42E9-B7BC-15A8AECD9A31
    $::ComponentData
        $::GameObjectData
            $::GameDataContainer
                $::DataContainer
            IsEventConnectionTarget 3
            IsPropertyConnectionTarget 3
            IndexInBlueprint -1
        Transform::LinearTransform
            right::Vec3
                x 1.0
                y 0.0
                z 0.0
            up::Vec3
                x 0.0
                y 1.0
                z 0.0
            forward::Vec3
                x 0.0
                y 0.0
                z 1.0
            trans::Vec3
                x 0.49460423
                y 1.0514805
                z 2.157593
        Components *nullArray*
        Excluded False
    Camera 9D4189B8-66B2-4E0D-B2F6-271D8AEF108B
    FieldOfView 45.0
    ForceFieldOfView -1.0
    EnableCameraMesh True
    AlternateView 09052262-E1A6-454E-AE14-43595FEEDE56
    RegularView::RegularCameraViewData
        FLIREnabled False
        InputSuppression::InputSuppressionData
            SuppressVehicleInput *nullArray*
        FieldOfView 50.0
        AllowFieldOfViewScaling False
        Mesh vehicles/common/jethudtest_ru_mesh/74211F8A-B9A0-56D9-F77B-C7FBD1DCF1F4
        MaskMeshBlueprint *nullGuid*
        LockMeshToRenderView False
        MeshOffset::Vec3
            x 0.0
            y 0.01
            z 0.52
        ScreenExposureAreaScale 1.0
    AlternateViewEnabled True
    FreezeHeight 0.0
    IsFirstPerson True
    SoldierAnimatedCamera::SoldierAnimatedCameraData
        EnableFeature False
        CameraTransitionTime 0.5
    ReceiveImpulsesAsThirdPerson False
    UseCameraTransition False
    CameraTransitionPos::Vec3
        x 0.0
        y 0.0
        z 0.0
    CameraTransitionTime 2.0
    MeshParentComponentNumber 0
    StanceData::StanceCameraData
        ValidStances::array
            member 0
        DefaultCameraForStances::array
            member 0
    CameraSoundData *nullGuid*
    IgnoreOwnerOrientation False
ChassisComponentData 866FBE56-DAD4-403E-BCAE-0D256C20CB51
    $::PartComponentData
        $::ComponentData
            $::GameObjectData
                $::GameDataContainer
                    $::DataContainer
                IsEventConnectionTarget 3
                IsPropertyConnectionTarget 3
                IndexInBlueprint 1
            Transform::LinearTransform
                right::Vec3
                    x 1.0
                    y 0.0
                    z 0.0
                up::Vec3
                    x 0.0
                    y 1.0
                    z 0.0
                forward::Vec3
                    x 0.0
                    y 0.0
                    z 1.0
                trans::Vec3
                    x 0.0
                    y 0.0
                    z 0.0
            Components::array
                member E5BA3A5B-1EC5-43B2-87C6-8AFDEF48DBED
                member 887711AF-18DB-4C08-A7C9-1B789F640688
                member EECB3C39-E23E-4993-82BA-27DF9E41FB5A
                member 654962DF-B47D-4434-A03D-6E590B5C5586
                member F2306F73-955B-410A-8C3D-74BA1DF0975D
                member BE678228-DCE3-4B88-8F73-C6701C7D6663
                member B43D5529-1F92-4A61-A9C2-2F3A61DED7AE
                member C032021E-5E3F-409E-AC43-08D28B96885E
                member 71381EAA-CA3B-46E4-8A31-8DA6B5A89BDC
                member 2C4C0CC5-1269-4201-A08C-AC67AC7482AA
                member 2EAE7E8A-FF0B-46FD-A053-DE347D962C50
                member 780199C9-0E36-41D8-8053-953872E1CBA3
                member 20E338F6-5929-4E33-BED2-18F3DB9C7A95
                member 2387EA46-60FE-85D6-271F-EAC6ADA7962A
                member EB7F44E4-E06C-1EA6-4517-AB5FCDCBAE04
                member 6A686138-30BC-24E7-9927-AC1C8E9C6997
                member 98859207-ED09-D252-E06D-F73F88A6FA03
                member A8E70D75-69B6-CD8A-CF0A-681136F95DC1
                member 28319808-6A78-99CD-113A-31BD79D381F4
                member AAE52112-8A40-6D22-D0D1-910B05856E07
                member D1AF11A9-382D-74EA-9511-34469F39E6DB
                member 9F464D77-6066-B61B-DEB2-8D29793761EB
                member 05D75CC3-3CA0-9453-2965-2019E9D4665B
                member 8CCFF5BA-433A-C89F-3BB6-7FC902A37FA8
                member 1D0BBF96-845E-D1FE-568E-FF4313FA610F
                member D743C705-2A4D-1F92-96CA-FABD0808B6E6
                member 0091D5BA-1673-2863-7290-C844CB9C7781
                member D1A11C81-AE75-7053-89F9-8F3A19C746CB
                member A9F510D4-FE96-1317-9337-A03053518B06
                member A161BB65-9F79-AACC-8FD4-DDE6E67252CD
            Excluded False
        HealthStates::array
            member 527F4F6C-9BBA-4C1E-B3CE-732B3253B390
            member 09F05B61-964C-4234-B62E-472B7398E8BD
        PartLinks *nullArray*
        IsSupported False
        IsFragile False
        IsNetworkable True
        IsWindow False
        AnimatePhysics False
    VehicleConfig EEBD1D0A-3A09-4DF4-AEE2-829074CC06AA
    GearboxConfig 0B285A48-8082-413E-8E47-751C8CE6F94D
    AlwaysFullThrottle False
    WaterEffects *nullArray*
    WaterStreakEffects *nullArray*
    TriggerGroundEffectImpulse 0.0
    LandingGearLogic *nullGuid*
    ForceLandingGearsRetract False
    AllowNegativeThrottle True
Curve2D 836B1838-387E-468C-85C8-0C20F62D9B0E
    $::DataContainer
    Curve::array
        member::Vec2
            x -25.0
            y -1.0
        member::Vec2
            x -20.0
            y -3.0
        member::Vec2
            x -10.0
            y -2.0
        member::Vec2
            x -0.75
            y 0.0
        member::Vec2
            x 0.75
            y 0.0
        member::Vec2
            x 10.0
            y 2.0
        member::Vec2
            x 20.0
            y 3.0
        member::Vec2
            x 25.0
            y 1.0
Curve2D 602348E0-95F1-4296-9713-550B63321B21
    $::DataContainer
    Curve::array
        member::Vec2
            x -12.5
            y 2.25
        member::Vec2
            x -7.5
            y 1.25
        member::Vec2
            x -5.0
            y 0.1
        member::Vec2
            x -2.0
            y 0.05
        member::Vec2
            x 0.0
            y 0.03
        member::Vec2
            x 2.0
            y 0.05
        member::Vec2
            x 5.0
            y 0.1
        member::Vec2
            x 7.5
            y 1.25
        member::Vec2
            x 12.5
            y 2.25
Curve2D B7CCC4AD-54C1-4FDB-A6EE-0CA3DA117CB7
    $::DataContainer
    Curve *nullArray*
Curve2D CA202063-BB41-487F-98DA-0E8F863604FF
    $::DataContainer
    Curve::array
        member::Vec2
            x -35.0
            y 1.0
        member::Vec2
            x 0.0
            y 0.0
        member::Vec2
            x 35.0
            y 1.0
Curve2D 38633010-B5FE-4BA8-A7AE-F03DEB91B0BC
    $::DataContainer
    Curve *nullArray*
Curve2D 3A637D56-3F36-482E-AAF2-9C035CB7DB16
    $::DataContainer
    Curve::array
        member::Vec2
            x -35.0
            y 1.0
        member::Vec2
            x 0.0
            y 0.0
        member::Vec2
            x 35.0
            y 1.0
EffectComponentData D1097B5F-8C13-4BFE-8225-38CCE2C715F1
    $::ComponentData
        $::GameObjectData
            $::GameDataContainer
                $::DataContainer
            IsEventConnectionTarget 3
            IsPropertyConnectionTarget 3
            IndexInBlueprint -1
        Transform::LinearTransform
            right::Vec3
                x 1.0
                y 0.0
                z 0.0
            up::Vec3
                x 0.0
                y 1.0
                z 0.0
            forward::Vec3
                x 0.0
                y 0.0
                z 1.0
            trans::Vec3
                x 0.0
                y -0.13367498
                z -0.9694631
        Components *nullArray*
        Excluded False
    Effect fx/vehicles/damagestates/healthcritical/heli/fx_healthcritical_heli/7606A142-865C-4492-A437-287510E4FB42
    AutoStart False
    SnapToWaterSurface False
    EmitterParameter1 0.0
    EmitterParameter2 0.0
    EmitterParameter3 0.0
EffectComponentData 119D3A76-B60E-4738-B1A4-E262B7B9DDEE
    $::ComponentData
        $::GameObjectData
            $::GameDataContainer
                $::DataContainer
            IsEventConnectionTarget 3
            IsPropertyConnectionTarget 3
            IndexInBlueprint -1
        Transform::LinearTransform
            right::Vec3
                x 1.0
                y 0.0
                z 0.0
            up::Vec3
                x 0.0
                y 1.0
                z 0.0
            forward::Vec3
                x 0.0
                y 0.0
                z 1.0
            trans::Vec3
                x 0.0
                y -0.13367498
                z -0.9694631
        Components *nullArray*
        Excluded False
    Effect fx/vehicles/damagestates/healthdisabled/heli/fx_healthdisabled_heli_02/3166CE80-8B14-4530-B27E-4BE8EC128469
    AutoStart False
    SnapToWaterSurface False
    EmitterParameter1 0.0
    EmitterParameter2 0.0
    EmitterParameter3 0.0
EffectComponentData 728B05E7-31A2-4A95-AB26-344CF869D341
    $::ComponentData
        $::GameObjectData
            $::GameDataContainer
                $::DataContainer
            IsEventConnectionTarget 3
            IsPropertyConnectionTarget 3
            IndexInBlueprint -1
        Transform::LinearTransform
            right::Vec3
                x 1.0
                y 0.0
                z 0.0
            up::Vec3
                x 0.0
                y 1.0
                z 0.0
            forward::Vec3
                x 0.0
                y 0.0
                z 1.0
            trans::Vec3
                x 0.0
                y -0.13367498
                z -0.9694631
        Components *nullArray*
        Excluded False
    Effect fx/vehicles/damagestates/healthhigh/heli/fx_healthhigh_heli/FF1D41D6-3834-4A58-AEE4-A61132AD1081
    AutoStart False
    SnapToWaterSurface False
    EmitterParameter1 0.0
    EmitterParameter2 0.0
    EmitterParameter3 0.0
EffectComponentData D03905BF-D81A-46D3-9567-0B788878AE5E
    $::ComponentData
        $::GameObjectData
            $::GameDataContainer
                $::DataContainer
            IsEventConnectionTarget 0
            IsPropertyConnectionTarget 3
            IndexInBlueprint -1
        Transform::LinearTransform
            right::Vec3
                x 1.0
                y 0.0
                z 0.0
            up::Vec3
                x 0.0
                y 1.0
                z 0.0
            forward::Vec3
                x 0.0
                y 0.0
                z 1.0
            trans::Vec3
                x 0.0
                y 0.0
                z 0.0
        Components *nullArray*
        Excluded False
    Effect fx/ambient/levelspecific/sp_paris/fx_spparis_helicopter_dmgsmoke/ABFBCBB4-BDBD-4BCB-A911-1EF85861A8BF
    AutoStart False
    SnapToWaterSurface False
    EmitterParameter1 0.0
    EmitterParameter2 0.0
    EmitterParameter3 0.0
EngineComponentData 887711AF-18DB-4C08-A7C9-1B789F640688
    $::ComponentData
        $::GameObjectData
            $::GameDataContainer
                $::DataContainer
            IsEventConnectionTarget 3
            IsPropertyConnectionTarget 3
            IndexInBlueprint -1
        Transform::LinearTransform
            right::Vec3
                x 1.0
                y 0.0
                z 0.0
            up::Vec3
                x 0.0
                y 1.0
                z 0.0
            forward::Vec3
                x 0.0
                y 0.0
                z 1.0
            trans::Vec3
                x 0.0
                y 0.75
                z 0.0
        Components::array
            member E9393E9A-A56D-4393-BA32-7B7CFB6FF3D6
        Excluded False
    Config 6FBC1C4B-4B70-4CD1-8622-894C4A059961
    SoundEffect *nullGuid*
    SurfaceSoundEffect *nullGuid*
    UseFirstPersonSounds False
    OutputIsEngineInWater False
EngineComponentData EECB3C39-E23E-4993-82BA-27DF9E41FB5A
    $::ComponentData
        $::GameObjectData
            $::GameDataContainer
                $::DataContainer
            IsEventConnectionTarget 3
            IsPropertyConnectionTarget 3
            IndexInBlueprint -1
        Transform::LinearTransform
            right::Vec3
                x 1.0
                y 0.0
                z 0.0
            up::Vec3
                x 0.0
                y 1.0
                z 0.0
            forward::Vec3
                x 0.0
                y 0.0
                z 1.0
            trans::Vec3
                x 0.282121
                y -0.59198296
                z -5.311234
        Components::array
            member BF8F6E37-776F-433E-A257-558DC9F09F88
        Excluded False
    Config B2565D11-9030-47D1-A6AB-9F8A0098D1EC
    SoundEffect *nullGuid*
    SurfaceSoundEffect *nullGuid*
    UseFirstPersonSounds False
    OutputIsEngineInWater False
EntityVoiceOverInfo CEFCD91D-7154-424D-AB02-5268F0740285
    $::DataContainer
    VoiceOverType sound/vo/vo_system/E23D6FD9-AED0-437E-98AB-435761060519
    Labels::array
        member sound/vo/vo_system/D5C4F416-4260-4C54-8F47-AA07606FBB29
GearboxConfigData 0B285A48-8082-413E-8E47-751C8CE6F94D
    $::DataContainer
    ForwardGearRatios::array
        member 0.0
    ForwardGearSpeeds::array
        member 0.0
    ReverseGearRatios::array
        member 0.0
    ReverseGearSpeeds::array
        member 0.0
    GearboxType 0
    GearboxMode 0
    GearChangeTime 0.0625
    GearDownSpeedFactor 0.8
    OppositeDirGearChangeMaxSpeed 50.0
    OppositeDirGearChangeTime 0.125
    ClutchSpeedFactor 10.0
    TransmissionEfficiency 1.0
    UseAutoClutch True
    UseClassicGearBoxAutoClutch False
    UseNeutralGear True
    LimitBackwardThrottle False
    BackwardThrottleLimit 50.0
HavokAsset 0D0B9129-20D6-563A-B079-112E72D93612
    $::Asset
        $::DataContainer
        Name Vehicles/Wz11_SP_Paris/Wz11_SP_Paris_Physics_0_Win32
    Scale 1.0
    ExternalAssets *nullArray*
HealthStateData 527F4F6C-9BBA-4C1E-B3CE-732B3253B390
    $::DataContainer
    Objects *nullArray*
    LoosePartPhysics *nullArray*
    SpawnedBangerBlueprint *nullGuid*
    CopyDamageToBanger True
    SpawnedBangerImpulseParams *nullGuid*
    PhysicsEnabled True
    Health 100000.0
    PartIndex 18
    CanSupportOtherParts True
HealthStateData 09F05B61-964C-4234-B62E-472B7398E8BD
    $::DataContainer
    Objects::array
        member 3AFDDB3A-C8C9-4EAA-8CEA-647B7CEBA5D2
        member E9455ECE-BC1C-41BE-8A2B-E141CB82AB4F
    LoosePartPhysics *nullArray*
    SpawnedBangerBlueprint *nullGuid*
    CopyDamageToBanger True
    SpawnedBangerImpulseParams *nullGuid*
    PhysicsEnabled True
    Health 0.0
    PartIndex 4294967295
    CanSupportOtherParts False
HealthStateData CBF2644E-C0B6-7928-4C6A-99CF2E19A0F6
    $::DataContainer
    Objects *nullArray*
    LoosePartPhysics *nullArray*
    SpawnedBangerBlueprint *nullGuid*
    CopyDamageToBanger True
    SpawnedBangerImpulseParams *nullGuid*
    PhysicsEnabled True
    Health 100.0
    PartIndex 0
    CanSupportOtherParts True
HealthStateData D7F695B5-8FF6-FDE3-0371-50BD7493AF38
    $::DataContainer
    Objects *nullArray*
    LoosePartPhysics *nullArray*
    SpawnedBangerBlueprint *nullGuid*
    CopyDamageToBanger True
    SpawnedBangerImpulseParams *nullGuid*
    PhysicsEnabled True
    Health 100.0
    PartIndex 1
    CanSupportOtherParts True
HealthStateData DACFB962-9E9A-0B42-B204-2EECBD709188
    $::DataContainer
    Objects *nullArray*
    LoosePartPhysics *nullArray*
    SpawnedBangerBlueprint *nullGuid*
    CopyDamageToBanger True
    SpawnedBangerImpulseParams *nullGuid*
    PhysicsEnabled True
    Health 100.0
    PartIndex 2
    CanSupportOtherParts True
HealthStateData EA6EC80F-C15F-11C7-F502-AC834F7C2BA4
    $::DataContainer
    Objects *nullArray*
    LoosePartPhysics *nullArray*
    SpawnedBangerBlueprint *nullGuid*
    CopyDamageToBanger True
    SpawnedBangerImpulseParams *nullGuid*
    PhysicsEnabled True
    Health 100.0
    PartIndex 3
    CanSupportOtherParts True
HealthStateData 354F2E67-0F0A-91CB-AFA1-4162223F005F
    $::DataContainer
    Objects *nullArray*
    LoosePartPhysics *nullArray*
    SpawnedBangerBlueprint *nullGuid*
    CopyDamageToBanger True
    SpawnedBangerImpulseParams *nullGuid*
    PhysicsEnabled True
    Health 100.0
    PartIndex 4
    CanSupportOtherParts True
HealthStateData FF9C48D9-C57A-B48C-6863-AA6E9AE32C8C
    $::DataContainer
    Objects *nullArray*
    LoosePartPhysics *nullArray*
    SpawnedBangerBlueprint *nullGuid*
    CopyDamageToBanger True
    SpawnedBangerImpulseParams *nullGuid*
    PhysicsEnabled True
    Health 100.0
    PartIndex 5
    CanSupportOtherParts True
HealthStateData C965E309-B139-9429-EA37-A27D7939C3D0
    $::DataContainer
    Objects *nullArray*
    LoosePartPhysics *nullArray*
    SpawnedBangerBlueprint *nullGuid*
    CopyDamageToBanger True
    SpawnedBangerImpulseParams *nullGuid*
    PhysicsEnabled True
    Health 100.0
    PartIndex 6
    CanSupportOtherParts True
HealthStateData C3EA9B89-0EC6-C989-CD9D-94A558A64578
    $::DataContainer
    Objects *nullArray*
    LoosePartPhysics *nullArray*
    SpawnedBangerBlueprint *nullGuid*
    CopyDamageToBanger True
    SpawnedBangerImpulseParams *nullGuid*
    PhysicsEnabled True
    Health 100.0
    PartIndex 7
    CanSupportOtherParts True
HealthStateData AB557BC6-A534-076C-714A-9136AA14814F
    $::DataContainer
    Objects *nullArray*
    LoosePartPhysics *nullArray*
    SpawnedBangerBlueprint *nullGuid*
    CopyDamageToBanger True
    SpawnedBangerImpulseParams *nullGuid*
    PhysicsEnabled True
    Health 100.0
    PartIndex 8
    CanSupportOtherParts True
HealthStateData 9FD1E294-4AE8-9A99-236D-9BF0FD14A36C
    $::DataContainer
    Objects *nullArray*
    LoosePartPhysics *nullArray*
    SpawnedBangerBlueprint *nullGuid*
    CopyDamageToBanger True
    SpawnedBangerImpulseParams *nullGuid*
    PhysicsEnabled True
    Health 100.0
    PartIndex 9
    CanSupportOtherParts True
HealthStateData B4FA3C44-689C-A0E1-86B3-C1ABCB886B65
    $::DataContainer
    Objects *nullArray*
    LoosePartPhysics *nullArray*
    SpawnedBangerBlueprint *nullGuid*
    CopyDamageToBanger True
    SpawnedBangerImpulseParams *nullGuid*
    PhysicsEnabled True
    Health 100.0
    PartIndex 10
    CanSupportOtherParts True
HealthStateData A3C76EF0-E719-5D78-F1DC-5FD97AA15E4C
    $::DataContainer
    Objects *nullArray*
    LoosePartPhysics *nullArray*
    SpawnedBangerBlueprint *nullGuid*
    CopyDamageToBanger True
    SpawnedBangerImpulseParams *nullGuid*
    PhysicsEnabled True
    Health 100.0
    PartIndex 11
    CanSupportOtherParts True
HealthStateData EC59DC16-4A2E-5197-64AF-72D2CE80F662
    $::DataContainer
    Objects *nullArray*
    LoosePartPhysics *nullArray*
    SpawnedBangerBlueprint *nullGuid*
    CopyDamageToBanger True
    SpawnedBangerImpulseParams *nullGuid*
    PhysicsEnabled True
    Health 100.0
    PartIndex 12
    CanSupportOtherParts True
HealthStateData A91CA190-1AD0-F69F-3C3B-067B62273551
    $::DataContainer
    Objects *nullArray*
    LoosePartPhysics *nullArray*
    SpawnedBangerBlueprint *nullGuid*
    CopyDamageToBanger True
    SpawnedBangerImpulseParams *nullGuid*
    PhysicsEnabled True
    Health 100.0
    PartIndex 13
    CanSupportOtherParts True
HealthStateData 6354C7B7-BE99-622A-0E3B-33DDC4D64642
    $::DataContainer
    Objects *nullArray*
    LoosePartPhysics *nullArray*
    SpawnedBangerBlueprint *nullGuid*
    CopyDamageToBanger True
    SpawnedBangerImpulseParams *nullGuid*
    PhysicsEnabled True
    Health 100.0
    PartIndex 14
    CanSupportOtherParts True
HealthStateData 66A2417B-73BD-CD52-7A04-2017FCB9C700
    $::DataContainer
    Objects *nullArray*
    LoosePartPhysics *nullArray*
    SpawnedBangerBlueprint *nullGuid*
    CopyDamageToBanger True
    SpawnedBangerImpulseParams *nullGuid*
    PhysicsEnabled True
    Health 100.0
    PartIndex 17
    CanSupportOtherParts True
HealthStateData 70BA7BB0-1FE2-4FFE-A811-A10489713122
    $::DataContainer
    Objects *nullArray*
    LoosePartPhysics *nullArray*
    SpawnedBangerBlueprint *nullGuid*
    CopyDamageToBanger True
    SpawnedBangerImpulseParams *nullGuid*
    PhysicsEnabled True
    Health 100.0
    PartIndex 8
    CanSupportOtherParts True
InterfaceDescriptorData 124A28BA-347A-4ADA-B24A-A40E181819D1
    $::DynamicDataContainer
        $::DataContainer
        Fields *nullArray*
    InputEvents::array
        member::DynamicEvent
            Id 1242230519
    OutputEvents *nullArray*
    InputLinks *nullArray*
    OutputLinks *nullArray*
MotionDampingData CEB17DC7-E471-4290-9ABF-B5EBBA986878
    $::DataContainer
    LinearModifier::Vec3
        x 1.5
        y 1.5
        z 1.5
    Pitch 0.24
    Yaw 0.08
    Roll 0.24
    Linear 0.0
PartComponentData 654962DF-B47D-4434-A03D-6E590B5C5586
    $::ComponentData
        $::GameObjectData
            $::GameDataContainer
                $::DataContainer
            IsEventConnectionTarget 3
            IsPropertyConnectionTarget 3
            IndexInBlueprint -1
        Transform::LinearTransform
            right::Vec3
                x 1.0
                y 0.0
                z 0.0
            up::Vec3
                x 0.0
                y 1.0
                z 0.0
            forward::Vec3
                x 0.0
                y 0.0
                z 1.0
            trans::Vec3
                x 0.0
                y 0.0
                z 0.0
        Components::array
            member D03905BF-D81A-46D3-9567-0B788878AE5E
            member D1097B5F-8C13-4BFE-8225-38CCE2C715F1
            member 119D3A76-B60E-4738-B1A4-E262B7B9DDEE
            member 728B05E7-31A2-4A95-AB26-344CF869D341
        Excluded False
    HealthStates *nullArray*
    PartLinks *nullArray*
    IsSupported False
    IsFragile False
    IsNetworkable True
    IsWindow False
    AnimatePhysics False
PartComponentData 2387EA46-60FE-85D6-271F-EAC6ADA7962A
    $::ComponentData
        $::GameObjectData
            $::GameDataContainer
                $::DataContainer
            IsEventConnectionTarget 3
            IsPropertyConnectionTarget 3
            IndexInBlueprint -1
        Transform::LinearTransform
            right::Vec3
                x 1.0
                y 0.0
                z 0.0
            up::Vec3
                x 0.0
                y 1.0
                z 0.0
            forward::Vec3
                x 0.0
                y 0.0
                z 1.0
            trans::Vec3
                x 0.0
                y 0.0
                z 0.0
        Components *nullArray*
        Excluded False
    HealthStates::array
        member CBF2644E-C0B6-7928-4C6A-99CF2E19A0F6
    PartLinks *nullArray*
    IsSupported False
    IsFragile False
    IsNetworkable True
    IsWindow False
    AnimatePhysics False
PartComponentData EB7F44E4-E06C-1EA6-4517-AB5FCDCBAE04
    $::ComponentData
        $::GameObjectData
            $::GameDataContainer
                $::DataContainer
            IsEventConnectionTarget 3
            IsPropertyConnectionTarget 3
            IndexInBlueprint -1
        Transform::LinearTransform
            right::Vec3
                x 1.0
                y 0.0
                z 0.0
            up::Vec3
                x 0.0
                y 1.0
                z 0.0
            forward::Vec3
                x 0.0
                y 0.0
                z 1.0
            trans::Vec3
                x 0.0
                y 0.0
                z 0.0
        Components *nullArray*
        Excluded False
    HealthStates::array
        member D7F695B5-8FF6-FDE3-0371-50BD7493AF38
    PartLinks *nullArray*
    IsSupported False
    IsFragile False
    IsNetworkable True
    IsWindow False
    AnimatePhysics False
PartComponentData 6A686138-30BC-24E7-9927-AC1C8E9C6997
    $::ComponentData
        $::GameObjectData
            $::GameDataContainer
                $::DataContainer
            IsEventConnectionTarget 3
            IsPropertyConnectionTarget 3
            IndexInBlueprint -1
        Transform::LinearTransform
            right::Vec3
                x 1.0
                y 0.0
                z 0.0
            up::Vec3
                x 0.0
                y 1.0
                z 0.0
            forward::Vec3
                x 0.0
                y 0.0
                z 1.0
            trans::Vec3
                x 0.0
                y 0.0
                z 0.0
        Components *nullArray*
        Excluded False
    HealthStates::array
        member DACFB962-9E9A-0B42-B204-2EECBD709188
    PartLinks *nullArray*
    IsSupported False
    IsFragile False
    IsNetworkable True
    IsWindow False
    AnimatePhysics False
PartComponentData 98859207-ED09-D252-E06D-F73F88A6FA03
    $::ComponentData
        $::GameObjectData
            $::GameDataContainer
                $::DataContainer
            IsEventConnectionTarget 3
            IsPropertyConnectionTarget 3
            IndexInBlueprint -1
        Transform::LinearTransform
            right::Vec3
                x 1.0
                y 0.0
                z 0.0
            up::Vec3
                x 0.0
                y 1.0
                z 0.0
            forward::Vec3
                x 0.0
                y 0.0
                z 1.0
            trans::Vec3
                x 0.0
                y 0.0
                z 0.0
        Components *nullArray*
        Excluded False
    HealthStates::array
        member EA6EC80F-C15F-11C7-F502-AC834F7C2BA4
    PartLinks *nullArray*
    IsSupported False
    IsFragile False
    IsNetworkable True
    IsWindow False
    AnimatePhysics False
PartComponentData A8E70D75-69B6-CD8A-CF0A-681136F95DC1
    $::ComponentData
        $::GameObjectData
            $::GameDataContainer
                $::DataContainer
            IsEventConnectionTarget 3
            IsPropertyConnectionTarget 3
            IndexInBlueprint -1
        Transform::LinearTransform
            right::Vec3
                x 1.0
                y 0.0
                z 0.0
            up::Vec3
                x 0.0
                y 1.0
                z 0.0