AIEntryData 993CD64E-1FB2-055E-D627-72E60966BEDB
    $::GameAIEntryData
        $::Asset
            $::DataContainer
            Name *nullString*
    EquipmentType *nullGuid*
    Armament *nullGuid*
    Mobility *nullGuid*
    StrengthType Infantry
    ReuseTime 0.0
    Forbidden True
    HasExposedSoldier False
    InterludeOnly False
    InvalidForAI False
AeroDynamicPhysicsData 8598531C-2A84-291F-206F-914CF6FC5A48
    $::DataContainer
    BodyDrag::Vec3
        x 0.0
        y 0.0
        z 0.00375
    BodyDragOffsetYZ::Vec3
        x 0.0
        y 0.0
        z 0.0
    BodyDragOffsetXZ::Vec3
        x 0.0
        y 0.0
        z 0.0
    BodyDragOffsetXY::Vec3
        x 0.0
        y 0.0
        z 0.0
AirRadarData E76BD7DF-C4B7-926F-0238-F79815F545A9
    $::UIPartData
        $::DataContainer
    RadarRange 1500.0
    RadarSensitivity -1.0
    HeatSensitivity 1.0
    TrackLaserPaintedObjects True
    TrackOnlyUsedVehicles True
    FriendlyIcon UIHudIcon_SnapOvalArrow
    EnemyIcon UIHudIcon_SpottedPosition
    MissileIcon UIHudIcon_NonSelectableSpawnPoint
    LaserPaintedIcon UIHudIcon_SelectedSpawnPoint
    CenterIcon UIHudIcon_Jet
    NorthIcon UIHudIcon_North
    SouthIcon UIHudIcon_North
    EastIcon UIHudIcon_North
    WestIcon UIHudIcon_North
    SubScreen::SubScreenData
        ProjectionAngleX 0.0
        ProjectionAngleY 0.0
        ProjectionAngleZ 0.0
        ScreenPosition::Vec3
            x 0.924
            y 0.0
            z 0.15
        ScreenSize 0.14
        IconSize 20.0
        ScaleIconSizeByDepthStrength 1.0
        UseRenderTarget False
        RenderTargetIndex 0
        RenderTargetApectRatio 1.55
    UseCameraComponentTransform False
AlternateCameraViewData 91103D26-6702-5AFD-8900-F33FD1451D7C
    $::DataContainer
    FieldOfView 55.0
    AllowFieldOfViewScaling False
    FovTransitionTime 0.1
    WorldSpaceLockEfficiency 0.0
    Mesh vehicles/common/cockpits/jethud_mesh/E45BC7F4-B2DF-42B9-FD77-B25D256D4A8C
    MaskMeshBlueprint *nullGuid*
    LockMeshToRenderView False
    MeshOffset::Vec3
        x 0.0
        y 0.0
        z 1.0
    Hud::HudData
        CrosshairScaleMin 0.0
        CrosshairScaleMax 5.0
        CrosshairOpacityMin 1.0
        CrosshairOpacityMax 0.1
        CrosshairOpacityModifier 1.0
        CrosshairTypeId *nullString*
        WeaponClass *nullString*
        ShowMinimap True
        HideAmmo False
        LowAmmoWarning 0.3
        ReloadPrompt 0.3
        InfiniteAmmo False
        HideCrosshairWhenAimOnFriend True
        UseRenderTarget True
        RenderTargetIndex 0
        HudPropertyList D0F8DBEE-CBF8-39C7-9008-BCBC502CC6EC
        UseRangeMeter True
        UseAimWarning True
        UsePredictedSight True
        UseWeaponOrientations True
        UseVelocityVectorMarker True
        UseLockingController True
        UseThrust True
        UseGForce True
        UseSkidSlip False
        UseClimbRate True
        SeaLevelAltFreq 15.0
        CameraShakeModifier 1.0
    FadeToBlack False
    FadeInDuration 0.1
    FadeOutDuration 0.1
    BlackDuration 0.1
    InputSuppression::InputSuppressionData
        SuppressVehicleInput::array
            member::ActionSuppressor
                ActionToSuppress EIAPitch
                SuppressingValue 0.0
            member::ActionSuppressor
                ActionToSuppress EIARoll
                SuppressingValue 0.0
    ToggleViewChange False
    UseProfileOptionForToggleViewChange False
    FLIREnabled False
    ScreenExposureAreaScale 1.0
AlternateCameraViewData C6386F96-0BE5-7D29-CFCC-87B19E7205CB
    $::DataContainer
    FieldOfView 8.0
    AllowFieldOfViewScaling False
    FovTransitionTime 0.0
    WorldSpaceLockEfficiency 0.0
    Mesh vehicles/common/cockpits/jethud_mesh/E45BC7F4-B2DF-42B9-FD77-B25D256D4A8C
    MaskMeshBlueprint *nullGuid*
    LockMeshToRenderView False
    MeshOffset::Vec3
        x 0.0
        y 0.0
        z 3.38
    Hud::HudData
        CrosshairScaleMin 0.0
        CrosshairScaleMax 5.0
        CrosshairOpacityMin 1.0
        CrosshairOpacityMax 0.1
        CrosshairOpacityModifier 1.0
        CrosshairTypeId *nullString*
        WeaponClass *nullString*
        ShowMinimap True
        HideAmmo False
        LowAmmoWarning 0.3
        ReloadPrompt 0.3
        InfiniteAmmo False
        HideCrosshairWhenAimOnFriend True
        UseRenderTarget False
        RenderTargetIndex 0
        HudPropertyList *nullGuid*
        UseRangeMeter True
        UseAimWarning True
        UsePredictedSight True
        UseWeaponOrientations True
        UseVelocityVectorMarker True
        UseLockingController True
        UseThrust True
        UseGForce True
        UseSkidSlip True
        UseClimbRate True
        SeaLevelAltFreq 15.0
        CameraShakeModifier 1.0
    FadeToBlack True
    FadeInDuration 0.0
    FadeOutDuration 0.0
    BlackDuration 0.0
    InputSuppression::InputSuppressionData
        SuppressVehicleInput::array
            member::ActionSuppressor
                ActionToSuppress EIARoll
                SuppressingValue 0.125
            member::ActionSuppressor
                ActionToSuppress EIAPitch
                SuppressingValue 0.125
    ToggleViewChange True
    UseProfileOptionForToggleViewChange False
    FLIREnabled False
    ScreenExposureAreaScale 1.0
BangerSpawnImpulseParams 0635A85B-68C4-ED7B-A4D2-ABD77E4A35AA
    $::DataContainer
    MinHorizontalAngle -90.0
    MaxHorizontalAngle 90.0
    MinVerticalAngle 45.0
    MaxVerticalAngle 85.0
    MinStrength 15000.0
    MaxStrength 15000.0
    WaterStrengthModifier 0.007
    LinearDamping 0.0
    AngularDamping 0.05
BangerSpawnImpulseParams 4B2BE102-3E97-F2BF-B355-DDF9C7D3CC82
    $::DataContainer
    MinHorizontalAngle -90.0
    MaxHorizontalAngle 90.0
    MinVerticalAngle 45.0
    MaxVerticalAngle 85.0
    MinStrength 15000.0
    MaxStrength 15000.0
    WaterStrengthModifier 0.007
    LinearDamping 0.0
    AngularDamping 0.05
BangerSpawnImpulseParams 6D7C36D4-0280-30E4-6E15-707759652D5C
    $::DataContainer
    MinHorizontalAngle -90.0
    MaxHorizontalAngle 90.0
    MinVerticalAngle 45.0
    MaxVerticalAngle 85.0
    MinStrength 15000.0
    MaxStrength 15000.0
    WaterStrengthModifier 0.007
    LinearDamping 0.0
    AngularDamping 0.05
BangerSpawnImpulseParams D0FC9235-961B-F319-EC27-69991AE41F65
    $::DataContainer
    MinHorizontalAngle -90.0
    MaxHorizontalAngle 90.0
    MinVerticalAngle 45.0
    MaxVerticalAngle 85.0
    MinStrength 15000.0
    MaxStrength 15000.0
    WaterStrengthModifier 0.007
    LinearDamping 0.0
    AngularDamping 0.05
CameraComponentData BEA25E46-43AA-1A07-D66E-76F08AE9D20A
    $::ComponentData
        $::GameObjectData
            $::GameDataContainer
                $::DataContainer
            IsEventConnectionTarget 3
            IsPropertyConnectionTarget 3
            IndexInBlueprint -1
        Transform::LinearTransform
            right::Vec3
                x 1.0
                y 0.0
                z 0.0
            up::Vec3
                x 0.0
                y 1.0
                z 0.0
            forward::Vec3
                x 0.0
                y 0.0
                z 1.0
            trans::Vec3
                x 0.0
                y 2.4570583e-09
                z -0.016055852
        Components *nullArray*
        Excluded False
    Camera 23762ACF-C7E4-CA39-B995-F6640C546C3D
    FieldOfView 45.0
    ForceFieldOfView -1.0
    EnableCameraMesh True
    AlternateView 91103D26-6702-5AFD-8900-F33FD1451D7C
    RegularView::RegularCameraViewData
        FLIREnabled False
        InputSuppression::InputSuppressionData
            SuppressVehicleInput *nullArray*
        FieldOfView 55.0
        AllowFieldOfViewScaling False
        Mesh vehicles/common/cockpits/jethud_mesh/E45BC7F4-B2DF-42B9-FD77-B25D256D4A8C
        MaskMeshBlueprint *nullGuid*
        LockMeshToRenderView False
        MeshOffset::Vec3
            x 0.0
            y 0.0
            z 1.0
        ScreenExposureAreaScale 1.0
    AlternateViewEnabled True
    FreezeHeight 0.0
    IsFirstPerson True
    SoldierAnimatedCamera::SoldierAnimatedCameraData
        EnableFeature False
        CameraTransitionTime 0.5
    ReceiveImpulsesAsThirdPerson False
    UseCameraTransition False
    CameraTransitionPos::Vec3
        x 0.0
        y 0.0
        z 0.0
    CameraTransitionTime 0.1
    MeshParentComponentNumber 0
    StanceData::StanceCameraData
        ValidStances::array
            member 0
            member 1
        DefaultCameraForStances::array
            member 0
            member 1
    CameraSoundData *nullGuid*
    IgnoreOwnerOrientation False
CameraComponentData FF3662E0-BABF-5DBC-119D-4BD641A08F9D
    $::ComponentData
        $::GameObjectData
            $::GameDataContainer
                $::DataContainer
            IsEventConnectionTarget 3
            IsPropertyConnectionTarget 3
            IndexInBlueprint -1
        Transform::LinearTransform
            right::Vec3
                x 1.0
                y 0.0
                z 0.0
            up::Vec3
                x 0.0
                y 1.0
                z -4.4223647e-10
            forward::Vec3
                x 0.0
                y 4.4223647e-10
                z 1.0
            trans::Vec3
                x 0.0
                y 3.5
                z 2.916223
        Components *nullArray*
        Excluded False
    Camera 6664F850-49B0-9FCF-0C60-15BAF97CE699
    FieldOfView 45.0
    ForceFieldOfView -1.0
    EnableCameraMesh True
    AlternateView *nullGuid*
    RegularView::RegularCameraViewData
        FLIREnabled False
        InputSuppression::InputSuppressionData
            SuppressVehicleInput *nullArray*
        FieldOfView 65.0
        AllowFieldOfViewScaling False
        Mesh *nullGuid*
        MaskMeshBlueprint *nullGuid*
        LockMeshToRenderView False
        MeshOffset::Vec3
            x 0.0
            y 0.0
            z 0.0
        ScreenExposureAreaScale 1.0
    AlternateViewEnabled True
    FreezeHeight 0.0
    IsFirstPerson False
    SoldierAnimatedCamera::SoldierAnimatedCameraData
        EnableFeature False
        CameraTransitionTime 0.5
    ReceiveImpulsesAsThirdPerson False
    UseCameraTransition False
    CameraTransitionPos::Vec3
        x 0.0
        y 0.0
        z 0.0
    CameraTransitionTime 2.0
    MeshParentComponentNumber 0
    StanceData::StanceCameraData
        ValidStances *nullArray*
        DefaultCameraForStances *nullArray*
    CameraSoundData *nullGuid*
    IgnoreOwnerOrientation False
CameraComponentData C80519F3-2FFC-0577-9D5E-11E98AF09406
    $::ComponentData
        $::GameObjectData
            $::GameDataContainer
                $::DataContainer
            IsEventConnectionTarget 3
            IsPropertyConnectionTarget 3
            IndexInBlueprint -1
        Transform::LinearTransform
            right::Vec3
                x 1.0
                y -2.1540566e-11
                z 3.156582e-12
            up::Vec3
                x -2.1540566e-11
                y 1.0
                z 1.3438451e-11
            forward::Vec3
                x -3.69978e-11
                y -8.169126e-11
                z 0.99999994
            trans::Vec3
                x 0.0
                y 0.0
                z 0.0
        Components *nullArray*
        Excluded False
    Camera A08CE3F8-22E1-0ED0-0E05-60025AC8A1AA
    FieldOfView 45.0
    ForceFieldOfView -1.0
    EnableCameraMesh True
    AlternateView C6386F96-0BE5-7D29-CFCC-87B19E7205CB
    RegularView::RegularCameraViewData
        FLIREnabled False
        InputSuppression::InputSuppressionData
            SuppressVehicleInput *nullArray*
        FieldOfView 65.0
        AllowFieldOfViewScaling False
        Mesh vehicles/common/cockpits/jethud_mesh/E45BC7F4-B2DF-42B9-FD77-B25D256D4A8C
        MaskMeshBlueprint *nullGuid*
        LockMeshToRenderView False
        MeshOffset::Vec3
            x 0.0
            y 0.0
            z 0.37
        ScreenExposureAreaScale 1.0
    AlternateViewEnabled True
    FreezeHeight 0.0
    IsFirstPerson True
    SoldierAnimatedCamera::SoldierAnimatedCameraData
        EnableFeature False
        CameraTransitionTime 0.5
    ReceiveImpulsesAsThirdPerson False
    UseCameraTransition False
    CameraTransitionPos::Vec3
        x 0.0
        y 0.0
        z 0.0
    CameraTransitionTime 2.0
    MeshParentComponentNumber 0
    StanceData::StanceCameraData
        ValidStances::array
            member 0
            member 1
        DefaultCameraForStances::array
            member 0
            member 1
    CameraSoundData DEBEC81A-8C70-3948-4D59-C019AA708923
    IgnoreOwnerOrientation False
CameraComponentSoundData DEBEC81A-8C70-3948-4D59-C019AA708923
    $::DataContainer
    SwitchToAlternateViewSound sound/vehicles/stancesandweaponviews/into_citv_us/B5202524-1D38-052F-7D1E-709579149348
    SwitchToNormalViewSound sound/vehicles/stancesandweaponviews/into_citv_us/B5202524-1D38-052F-7D1E-709579149348
ChaseCameraData 6664F850-49B0-9FCF-0C60-15BAF97CE699
    $::TargetCameraData
        $::CameraData
            $::GameObjectData
                $::GameDataContainer
                    $::DataContainer
                IsEventConnectionTarget 3
                IsPropertyConnectionTarget 3
                IndexInBlueprint -1
            OcclusionRayOffset::Vec3
                x 0.0
                y 0.0
                z 0.0
            PreFadeTime 0.0
            FadeTime 0.0
            FadeWaitTime 0.0
            StayFadedWhileStreaming False
            ViewFx *nullGuid*
            NearPlane -1.0
            ShadowViewDistanceScale 1.0
            SoundOcclusion 0.0
            SoundListenerRadius 0.5
            ShakeFactor 1.0
        Hud::HudData
            CrosshairScaleMin 0.0
            CrosshairScaleMax 5.0
            CrosshairOpacityMin 1.0
            CrosshairOpacityMax 0.1
            CrosshairOpacityModifier 1.0
            CrosshairTypeId none
            WeaponClass *nullString*
            ShowMinimap False
            HideAmmo False
            LowAmmoWarning 0.3
            ReloadPrompt 0.3
            InfiniteAmmo False
            HideCrosshairWhenAimOnFriend True
            UseRenderTarget False
            RenderTargetIndex 0
            HudPropertyList *nullGuid*
            UseRangeMeter False
            UseAimWarning False
            UsePredictedSight False
            UseWeaponOrientations False
            UseVelocityVectorMarker False
            UseLockingController False
            UseThrust False
            UseGForce False
            UseSkidSlip False
            UseClimbRate False
            SeaLevelAltFreq 0.0
            CameraShakeModifier 1.0
        UIParts *nullArray*
    TargetOffset::Vec3
        x 0.0
        y 1.2
        z 0.0
    TargetRotationOffset 0.0
    KeepTargetPitch True
    ToWantedPositionScale::Vec3
        x 50.0
        y 50.0
        z 50.0
    MaxViewRotationAngleDeg 0.0
    WantedAngleDeg 3.0
    WantedDistance 40.0
    MaxDistance 20.0
    SnapDistance 50.0
    ForceFieldRadius 2.0
    CollisionRadius 0.1
    ForceFieldForceScale 50.0
    AwayFromTargetForceScale 1.0
    VelocityDrag 15.0
    MaxVelocity 750.0
    PillMinimumCollisionRadius 0.5
    PillMaximumCollisionRadius 3.0
    PillMinimumCollisionLength 0.3
    PillExpandSizeSpeedAcceleration 10.0
    LookDistanceScale 0.0
    LookDistanceInFrontOfTarget 150.0
    ShouldRollWithTarget False
    InheritTargetVelocity True
    UpdateRate 200
    HasCollision True
ChildComponentData 71713C2F-8241-712C-71F4-67F17CB07691
    $::PartComponentData
        $::ComponentData
            $::GameObjectData
                $::GameDataContainer
                    $::DataContainer
                IsEventConnectionTarget 3
                IsPropertyConnectionTarget 3
                IndexInBlueprint -1
            Transform::LinearTransform
                right::Vec3
                    x 1.0
                    y 0.0
                    z 0.0
                up::Vec3
                    x 0.0
                    y 1.0
                    z 0.0
                forward::Vec3
                    x 0.0
                    y 0.0
                    z 1.0
                trans::Vec3
                    x 7.0524197
                    y -0.3672659
                    z -1.5247892
            Components *nullArray*
            Excluded False
        HealthStates::array
            member CF0D1C65-05D3-22D0-9FEA-D26B5EC2E4EB
        PartLinks *nullArray*
        IsSupported False
        IsFragile False
        IsNetworkable True
        IsWindow False
        AnimatePhysics False
    SoundEffect *nullGuid*
    MovingBody 8EF2AB1B-EDA5-0B6B-196D-7AC001AEA5ED
    HealthZone::VehicleHealthZoneData
        MaxHealth 0.0
        MaxShieldHealth 0.0
        UseDamageAngleCalculation False
        MinDamageAngle 0.0
        DamageAngleMultiplier 1.0
    SoundEffectStartRpm 0.1
    SoundEffectStopRpm 0.1
    AlignmentSettings *nullGuid*
    WorldSpacePositionLock False
    EnableAlignToCamera False
    AlignTransform::LinearTransform
        right::Vec3
            x 1.0
            y 0.0
            z 0.0
        up::Vec3
            x 0.0
            y 1.0
            z 0.0
        forward::Vec3
            x 0.0
            y 0.0
            z 1.0
        trans::Vec3
            x 0.0
            y 0.0
            z 0.0
ChildComponentData AC48F876-A98C-42C0-024E-FE051A4A042B
    $::PartComponentData
        $::ComponentData
            $::GameObjectData
                $::GameDataContainer
                    $::DataContainer
                IsEventConnectionTarget 0
                IsPropertyConnectionTarget 3
                IndexInBlueprint -1
            Transform::LinearTransform
                right::Vec3
                    x 1.0
                    y 0.0
                    z 0.0
                up::Vec3
                    x 0.0
                    y 1.0
                    z 0.0
                forward::Vec3
                    x 0.0
                    y 0.0
                    z 1.0
                trans::Vec3
                    x 7.0524197
                    y -0.12680815
                    z -1.5416032
            Components *nullArray*
            Excluded False
        HealthStates::array
            member D62152CD-31FB-787A-5629-346364D57884
        PartLinks *nullArray*
        IsSupported False
        IsFragile False
        IsNetworkable True
        IsWindow False
        AnimatePhysics False
    SoundEffect *nullGuid*
    MovingBody F43E6D2F-1675-FEE6-D6B9-8B48B51EE66F
    HealthZone::VehicleHealthZoneData
        MaxHealth 0.0
        MaxShieldHealth 0.0
        UseDamageAngleCalculation False
        MinDamageAngle 0.0
        DamageAngleMultiplier 1.0
    SoundEffectStartRpm 0.1
    SoundEffectStopRpm 0.1
    AlignmentSettings *nullGuid*
    WorldSpacePositionLock False
    EnableAlignToCamera False
    AlignTransform::LinearTransform
        right::Vec3
            x 1.0
            y 0.0
            z 0.0
        up::Vec3
            x 0.0
            y 1.0
            z 0.0
        forward::Vec3
            x 0.0
            y 0.0
            z 1.0
        trans::Vec3
            x 0.0
            y 0.0
            z 0.0
ChildComponentData 3C484596-70A6-3B00-2AEE-149678B878A7
    $::PartComponentData
        $::ComponentData
            $::GameObjectData
                $::GameDataContainer
                    $::DataContainer
                IsEventConnectionTarget 3
                IsPropertyConnectionTarget 3
                IndexInBlueprint -1
            Transform::LinearTransform
                right::Vec3
                    x 1.0
                    y 0.0
                    z 0.0
                up::Vec3
                    x 0.0
                    y 1.0
                    z 0.0
                forward::Vec3
                    x 0.0
                    y 0.0
                    z 1.0
                trans::Vec3
                    x -7.0524197
                    y -0.3672659
                    z -1.5247887
            Components *nullArray*
            Excluded False
        HealthStates::array
            member F22C7657-9F8E-B065-2CDB-E6FE8B5FBA3D
        PartLinks *nullArray*
        IsSupported False
        IsFragile False
        IsNetworkable True
        IsWindow False
        AnimatePhysics False
    SoundEffect *nullGuid*
    MovingBody 8EF2AB1B-EDA5-0B6B-196D-7AC001AEA5ED
    HealthZone::VehicleHealthZoneData
        MaxHealth 0.0
        MaxShieldHealth 0.0
        UseDamageAngleCalculation False
        MinDamageAngle 0.0
        DamageAngleMultiplier 1.0
    SoundEffectStartRpm 0.1
    SoundEffectStopRpm 0.1
    AlignmentSettings *nullGuid*
    WorldSpacePositionLock False
    EnableAlignToCamera False
    AlignTransform::LinearTransform
        right::Vec3
            x 1.0
            y 0.0
            z 0.0
        up::Vec3
            x 0.0
            y 1.0
            z 0.0
        forward::Vec3
            x 0.0
            y 0.0
            z 1.0
        trans::Vec3
            x 0.0
            y 0.0
            z 0.0
ChildComponentData 045E8683-7D00-06E9-A3D9-AAC86F906D25
    $::PartComponentData
        $::ComponentData
            $::GameObjectData
                $::GameDataContainer
                    $::DataContainer
                IsEventConnectionTarget 0
                IsPropertyConnectionTarget 3
                IndexInBlueprint -1
            Transform::LinearTransform
                right::Vec3
                    x 1.0
                    y 0.0
                    z 0.0
                up::Vec3
                    x 0.0
                    y 1.0
                    z 0.0
                forward::Vec3
                    x 0.0
                    y 0.0
                    z 1.0
                trans::Vec3
                    x -7.0524197
                    y -0.12680815
                    z -1.5416031
            Components *nullArray*
            Excluded False
        HealthStates::array
            member 2CFFFC3A-39FC-A5F2-0F0D-D650F18B62F4
        PartLinks *nullArray*
        IsSupported False
        IsFragile False
        IsNetworkable True
        IsWindow False
        AnimatePhysics False
    SoundEffect *nullGuid*
    MovingBody F43E6D2F-1675-FEE6-D6B9-8B48B51EE66F
    HealthZone::VehicleHealthZoneData
        MaxHealth 0.0
        MaxShieldHealth 0.0
        UseDamageAngleCalculation False
        MinDamageAngle 0.0
        DamageAngleMultiplier 1.0
    SoundEffectStartRpm 0.1
    SoundEffectStopRpm 0.1
    AlignmentSettings *nullGuid*
    WorldSpacePositionLock False
    EnableAlignToCamera False
    AlignTransform::LinearTransform
        right::Vec3
            x 1.0
            y 0.0
            z 0.0
        up::Vec3
            x 0.0
            y 1.0
            z 0.0
        forward::Vec3
            x 0.0
            y 0.0
            z 1.0
        trans::Vec3
            x 0.0
            y 0.0
            z 0.0
ChildComponentData 8638CECF-DD17-B562-4D2A-9CF4CF60AF43
    $::PartComponentData
        $::ComponentData
            $::GameObjectData
                $::GameDataContainer
                    $::DataContainer
                IsEventConnectionTarget 3
                IsPropertyConnectionTarget 3
                IndexInBlueprint -1
            Transform::LinearTransform
                right::Vec3
                    x 1.0
                    y 0.0
                    z 0.0
                up::Vec3
                    x 0.0
                    y 1.0
                    z 0.0
                forward::Vec3
                    x 0.0
                    y 0.0
                    z 1.0
                trans::Vec3
                    x -0.00025773738
                    y -0.8839817
                    z 4.1214523
            Components::array
                member 8DBF6ACE-40CC-FE8A-53F1-D2638F6831C4
            Excluded False
        HealthStates *nullArray*
        PartLinks *nullArray*
        IsSupported False
        IsFragile False
        IsNetworkable True
        IsWindow False
        AnimatePhysics False
    SoundEffect *nullGuid*
    MovingBody 83A3C2FD-2F01-586B-5FDE-47BE9B58E83E
    HealthZone::VehicleHealthZoneData
        MaxHealth 0.0
        MaxShieldHealth 0.0
        UseDamageAngleCalculation False
        MinDamageAngle 0.0
        DamageAngleMultiplier 1.0
    SoundEffectStartRpm 0.1
    SoundEffectStopRpm 0.1
    AlignmentSettings *nullGuid*
    WorldSpacePositionLock False
    EnableAlignToCamera False
    AlignTransform::LinearTransform
        right::Vec3
            x 1.0
            y 0.0
            z 0.0
        up::Vec3
            x 0.0
            y 1.0
            z 0.0
        forward::Vec3
            x 0.0
            y 0.0
            z 1.0
        trans::Vec3
            x 0.0
            y 0.0
            z 0.0
ChildComponentData 8DBF6ACE-40CC-FE8A-53F1-D2638F6831C4
    $::PartComponentData
        $::ComponentData
            $::GameObjectData
                $::GameDataContainer
                    $::DataContainer
                IsEventConnectionTarget 3
                IsPropertyConnectionTarget 3
                IndexInBlueprint -1
            Transform::LinearTransform
                right::Vec3
                    x 0.99999577
                    y -0.002834689
                    z -0.0006691527
                up::Vec3
                    x 0.002833617
                    y 0.9999947
                    z -0.0015979146
                forward::Vec3
                    x 0.00067367876
                    y 0.0015960117
                    z 0.9999985
                trans::Vec3
                    x 0.0
                    y 0.0
                    z 0.0
            Components::array
                member 32BC2DEB-6F35-E16A-7038-DB3ECC2B874A
            Excluded False
        HealthStates *nullArray*
        PartLinks *nullArray*
        IsSupported False
        IsFragile False
        IsNetworkable True
        IsWindow False
        AnimatePhysics False
    SoundEffect *nullGuid*
    MovingBody 7E1D0A60-7176-F25E-F71D-98E185F084BE
    HealthZone::VehicleHealthZoneData
        MaxHealth 0.0
        MaxShieldHealth 0.0
        UseDamageAngleCalculation False
        MinDamageAngle 0.0
        DamageAngleMultiplier 1.0
    SoundEffectStartRpm 0.1
    SoundEffectStopRpm 0.1
    AlignmentSettings *nullGuid*
    WorldSpacePositionLock False
    EnableAlignToCamera False
    AlignTransform::LinearTransform
        right::Vec3
            x 1.0
            y 0.0
            z 0.0
        up::Vec3
            x 0.0
            y 1.0
            z 0.0
        forward::Vec3
            x 0.0
            y 0.0
            z 1.0
        trans::Vec3
            x 0.0
            y 0.0
            z 0.0
ChildRotationBodyData F43E6D2F-1675-FEE6-D6B9-8B48B51EE66F
    $::RotationBodyData
        $::MovingBodyData
            $::DataContainer
            Mass 100.0
            Inertia 1000.0
        AngularMomentumMultiplier 50.0
        AngularMomentumThreshold 0.0
        AngularMomentumDamping 1.0
        AngularMomentumDampingAcc 1.0
        AngularMomentumDampingDeacc 1.0
        UsePostSatisfyConstraints True
        AngularConstraintMin 0.0
        AngularConstraintMax 80.0
        RotationAxis 0
        ExtendedConstraints *nullGuid*
        UseAngularMomentumThreshold False
        UseAngularMomentumDamping False
        UseAngularConstraint True
    ForceModifier -80000.0
    ResetForceModifier -20000.0
    ResetForceInputThreshold 1.0
    UseLinearInput False
    RotationInput EIABrake
    WorldSpaceLockEfficiency 0.0
ChildRotationBodyData 8EF2AB1B-EDA5-0B6B-196D-7AC001AEA5ED
    $::RotationBodyData
        $::MovingBodyData
            $::DataContainer
            Mass 100.0
            Inertia 1000.0
        AngularMomentumMultiplier 50.0
        AngularMomentumThreshold 0.0
        AngularMomentumDamping 1.0
        AngularMomentumDampingAcc 1.0
        AngularMomentumDampingDeacc 1.0
        UsePostSatisfyConstraints True
        AngularConstraintMin -80.0
        AngularConstraintMax 0.0
        RotationAxis 0
        ExtendedConstraints *nullGuid*
        UseAngularMomentumThreshold False
        UseAngularMomentumDamping False
        UseAngularConstraint True
    ForceModifier 80000.0
    ResetForceModifier -20000.0
    ResetForceInputThreshold 1.0
    UseLinearInput False
    RotationInput EIABrake
    WorldSpaceLockEfficiency 0.0
ChildRotationBodyData 7E1D0A60-7176-F25E-F71D-98E185F084BE
    $::RotationBodyData
        $::MovingBodyData
            $::DataContainer
            Mass 100.0
            Inertia 100.0
        AngularMomentumMultiplier 750.0
        AngularMomentumThreshold 10.0
        AngularMomentumDamping 0.5
        AngularMomentumDampingAcc 0.5
        AngularMomentumDampingDeacc 0.5
        UsePostSatisfyConstraints True
        AngularConstraintMin -20.0
        AngularConstraintMax 20.0
        RotationAxis 0